LAMMPS (16 Mar 2018)
###############################################################################
# MD simulation for NN water
###############################################################################

###############################################################################
# VARIABLES
###############################################################################
clear
# Configuration files
variable cfgFile         string "lmp/restart.data"
# Timesteps
variable numSteps        equal  500000
variable dt              equal  0.5
# NN
variable nnpCutoff       equal  6.36
variable nnpDir          string "nnp-trained"
# Masses
variable mass_H          equal  1.00794
variable mass_O          equal  15.9994

###############################################################################
# GENERAL SETUP
###############################################################################
units real   # NOT METAL!!!
boundary p p p
atom_style full
read_restart lmp/restart.data
  orthogonal box = (-6.63342 -6.62892 -6.60542) to (6.36142 6.36592 6.38942)
  222 atoms
#replicate 2 2 2
mass 1 1.00794
mass 2 15.9994
timestep 0.5
thermo 50

###############################################################################
# NN
###############################################################################
pair_style nnp dir nnp-trained showew no showewsum 0 resetew yes maxew 5000 cflength 1.8897261328 cfenergy 0.0015936
pair_coeff * * 6.36

###############################################################################
# SETTING
###############################################################################

dump           1 all atom 1000 results/dump-nnp.lammpstrj
dump           xyz all xyz 1000 results/dump.xyz
dump_modify    xyz sort id element H O

variable  dens equal (mass(all)/vol*1.66054) # gr/cm3

###############################################################################
# SIMULATION
###############################################################################

variable T      equal 300
variable P      equal 1.0
velocity   	    all create 300 98445 dist gaussian mom yes rot yes

############################ stress-tensor

variable    vp equal lx*ly*lz
compute     Tc all temp

#compute     peratom all stress/atom Tc
#compute     sxx all   reduce sum c_peratom[1]
#compute     syy all   reduce sum c_peratom[2]
#compute     szz all   reduce sum c_peratom[3]
#compute     sxy all   reduce sum c_peratom[4]
#compute     sxz all   reduce sum c_peratom[5]
#compute     syz all   reduce sum c_peratom[6]

variable    pxy equal   pxy #-c_sxy/(v_vp)
variable    pxz equal   pxz #-c_sxz/(v_vp)
variable    pyz equal   pyz #-c_syz/(v_vp)

############################

thermo_style    custom step temp etotal press lx ly lz v_dens

fix        	rlx all nvt temp $T $T 10 #iso $P $P 1000
fix        	rlx all nvt temp 300 $T 10
fix        	rlx all nvt temp 300 300 10
  fix style: nvt, fix ID: rlx
run 			  100000

*******************************************************************************

   NNP LIBRARY v2.0.0
   ------------------

Git branch  :
Git revision:  ()

Number of OpenMP threads: 1
*******************************************************************************

*** SETUP: SETTINGS FILE ******************************************************

Settings file name: nnp-trained/input.nn
Read 175 lines.
Found 102 lines with keywords.
*******************************************************************************

*** SETUP: NORMALIZATION ******************************************************

Data set normalization is used.
Mean energy per atom     :  -2.5521343547039809E+01
Conversion factor energy :   2.4265748255366972E+02
Conversion factor length :   5.8038448995319847E+00
*******************************************************************************

*** SETUP: ELEMENT MAP ********************************************************

Number of element strings found: 2
Element  0:  H (  1)
Element  1:  O (  8)
*******************************************************************************

*** SETUP: ELEMENTS ***********************************************************

Number of elements is consistent: 2
Atomic energy offsets per element:
Element  0:   0.00000000E+00
Element  1:   0.00000000E+00
Energy offsets are automatically subtracted from reference energies.
*******************************************************************************

*** SETUP: CUTOFF FUNCTIONS ***************************************************

Parameter alpha for inner cutoff: 0.000000
Inner cutoff = Symmetry function cutoff * alpha
Equal cutoff function type for all symmetry functions:
CutoffFunction::CT_TANHU (2)
f(r) = tanh^3(1 - r/rc)
*******************************************************************************

*** SETUP: SYMMETRY FUNCTIONS *************************************************

Abbreviations:
ind .... Symmetry function index.
ec ..... Central atom element.
ty ..... Symmetry function type.
e1 ..... Neighbor 1 element.
e2 ..... Neighbor 2 element.
eta .... Gaussian width eta.
rs ..... Shift distance of Gaussian.
la ..... Angle prefactor lambda.
zeta ... Angle term exponent zeta.
rc ..... Cutoff radius.
ct ..... Cutoff type.
ca ..... Cutoff alpha.
ln ..... Line number in settings file.

Short range atomic symmetry functions element  H :
 ind ec ty e1 e2       eta        rs la zeta        rc ct   ca    ln
   1  H  2  H    1.000E-03 0.000E+00         1.200E+01  2 0.00   106
   2  H  2  O    1.000E-03 0.000E+00         1.200E+01  2 0.00   116
   3  H  2  H    1.000E-02 0.000E+00         1.200E+01  2 0.00   107
   4  H  2  O    1.000E-02 0.000E+00         1.200E+01  2 0.00   117
   5  H  2  H    3.000E-02 0.000E+00         1.200E+01  2 0.00   108
   6  H  2  O    3.000E-02 0.000E+00         1.200E+01  2 0.00   118
   7  H  2  H    6.000E-02 0.000E+00         1.200E+01  2 0.00   109
   8  H  2  O    6.000E-02 0.000E+00         1.200E+01  2 0.00   119
   9  H  2  O    1.500E-01 9.000E-01         1.200E+01  2 0.00   120
  10  H  2  H    1.500E-01 1.900E+00         1.200E+01  2 0.00   110
  11  H  2  O    3.000E-01 9.000E-01         1.200E+01  2 0.00   121
  12  H  2  H    3.000E-01 1.900E+00         1.200E+01  2 0.00   111
  13  H  2  O    6.000E-01 9.000E-01         1.200E+01  2 0.00   122
  14  H  2  H    6.000E-01 1.900E+00         1.200E+01  2 0.00   112
  15  H  2  O    1.500E+00 9.000E-01         1.200E+01  2 0.00   123
  16  H  2  H    1.500E+00 1.900E+00         1.200E+01  2 0.00   113
  17  H  3  O  O 1.000E-03 0.000E+00 -1  4.0 1.200E+01  2 0.00   170
  18  H  3  O  O 1.000E-03 0.000E+00  1  4.0 1.200E+01  2 0.00   169
  19  H  3  H  O 1.000E-02 0.000E+00 -1  4.0 1.200E+01  2 0.00   160
  20  H  3  H  O 1.000E-02 0.000E+00  1  4.0 1.200E+01  2 0.00   158
  21  H  3  H  O 3.000E-02 0.000E+00 -1  1.0 1.200E+01  2 0.00   155
  22  H  3  O  O 3.000E-02 0.000E+00 -1  1.0 1.200E+01  2 0.00   168
  23  H  3  H  O 3.000E-02 0.000E+00  1  1.0 1.200E+01  2 0.00   153
  24  H  3  O  O 3.000E-02 0.000E+00  1  1.0 1.200E+01  2 0.00   167
  25  H  3  H  O 7.000E-02 0.000E+00 -1  1.0 1.200E+01  2 0.00   150
  26  H  3  H  O 7.000E-02 0.000E+00  1  1.0 1.200E+01  2 0.00   148
  27  H  3  H  O 2.000E-01 0.000E+00  1  1.0 1.200E+01  2 0.00   145
Short range atomic symmetry functions element  O :
 ind ec ty e1 e2       eta        rs la zeta        rc ct   ca    ln
   1  O  2  H    1.000E-03 0.000E+00         1.200E+01  2 0.00   125
   2  O  2  O    1.000E-03 0.000E+00         1.200E+01  2 0.00   135
   3  O  2  H    1.000E-02 0.000E+00         1.200E+01  2 0.00   126
   4  O  2  O    1.000E-02 0.000E+00         1.200E+01  2 0.00   136
   5  O  2  H    3.000E-02 0.000E+00         1.200E+01  2 0.00   127
   6  O  2  O    3.000E-02 0.000E+00         1.200E+01  2 0.00   137
   7  O  2  H    6.000E-02 0.000E+00         1.200E+01  2 0.00   128
   8  O  2  O    6.000E-02 0.000E+00         1.200E+01  2 0.00   138
   9  O  2  H    1.500E-01 9.000E-01         1.200E+01  2 0.00   129
  10  O  2  O    1.500E-01 4.000E+00         1.200E+01  2 0.00   139
  11  O  2  H    3.000E-01 9.000E-01         1.200E+01  2 0.00   130
  12  O  2  O    3.000E-01 4.000E+00         1.200E+01  2 0.00   140
  13  O  2  H    6.000E-01 9.000E-01         1.200E+01  2 0.00   131
  14  O  2  O    6.000E-01 4.000E+00         1.200E+01  2 0.00   141
  15  O  2  H    1.500E+00 9.000E-01         1.200E+01  2 0.00   132
  16  O  2  O    1.500E+00 4.000E+00         1.200E+01  2 0.00   142
  17  O  3  H  O 1.000E-03 0.000E+00 -1  4.0 1.200E+01  2 0.00   165
  18  O  3  O  O 1.000E-03 0.000E+00 -1  4.0 1.200E+01  2 0.00   175
  19  O  3  H  O 1.000E-03 0.000E+00  1  4.0 1.200E+01  2 0.00   164
  20  O  3  O  O 1.000E-03 0.000E+00  1  4.0 1.200E+01  2 0.00   174
  21  O  3  H  H 1.000E-02 0.000E+00 -1  4.0 1.200E+01  2 0.00   159
  22  O  3  H  H 1.000E-02 0.000E+00  1  4.0 1.200E+01  2 0.00   157
  23  O  3  H  H 3.000E-02 0.000E+00 -1  1.0 1.200E+01  2 0.00   154
  24  O  3  H  O 3.000E-02 0.000E+00 -1  1.0 1.200E+01  2 0.00   163
  25  O  3  O  O 3.000E-02 0.000E+00 -1  1.0 1.200E+01  2 0.00   173
  26  O  3  H  H 3.000E-02 0.000E+00  1  1.0 1.200E+01  2 0.00   152
  27  O  3  H  O 3.000E-02 0.000E+00  1  1.0 1.200E+01  2 0.00   162
  28  O  3  O  O 3.000E-02 0.000E+00  1  1.0 1.200E+01  2 0.00   172
  29  O  3  H  H 7.000E-02 0.000E+00 -1  1.0 1.200E+01  2 0.00   149
  30  O  3  H  H 7.000E-02 0.000E+00  1  1.0 1.200E+01  2 0.00   147
Minimum cutoff radius for element  H: 12.000000
Minimum cutoff radius for element  O: 12.000000
Maximum cutoff radius (global)      : 12.000000
*******************************************************************************

*** SETUP: SYMMETRY FUNCTION GROUPS *******************************************

Abbreviations:
ind .... Symmetry function group index.
ec ..... Central atom element.
ty ..... Symmetry function type.
e1 ..... Neighbor 1 element.
e2 ..... Neighbor 2 element.
eta .... Gaussian width eta.
rs ..... Shift distance of Gaussian.
la ..... Angle prefactor lambda.
zeta ... Angle term exponent zeta.
rc ..... Cutoff radius.
ct ..... Cutoff type.
ca ..... Cutoff alpha.
ln ..... Line number in settings file.
mi ..... Member index.
sfi .... Symmetry function index.
e ...... Recalculate exponential term.

Short range atomic symmetry function groups element  H :
 ind ec ty e1 e2       eta        rs la zeta        rc ct   ca    ln   mi  sfi e
   1  H  2  H            *         *         1.200E+01  2 0.00     *    *    *
   -  -  -  -    1.000E-03 0.000E+00                 -  -    -   105    1    1
   -  -  -  -    1.000E-02 0.000E+00                 -  -    -   106    2    3
   -  -  -  -    3.000E-02 0.000E+00                 -  -    -   107    3    5
   -  -  -  -    6.000E-02 0.000E+00                 -  -    -   108    4    7
   -  -  -  -    1.500E-01 1.900E+00                 -  -    -   109    5   10
   -  -  -  -    3.000E-01 1.900E+00                 -  -    -   110    6   12
   -  -  -  -    6.000E-01 1.900E+00                 -  -    -   111    7   14
   -  -  -  -    1.500E+00 1.900E+00                 -  -    -   112    8   16
   2  H  2  O            *         *         1.200E+01  2 0.00     *    *    *
   -  -  -  -    1.000E-03 0.000E+00                 -  -    -   115    1    2
   -  -  -  -    1.000E-02 0.000E+00                 -  -    -   116    2    4
   -  -  -  -    3.000E-02 0.000E+00                 -  -    -   117    3    6
   -  -  -  -    6.000E-02 0.000E+00                 -  -    -   118    4    8
   -  -  -  -    1.500E-01 9.000E-01                 -  -    -   119    5    9
   -  -  -  -    3.000E-01 9.000E-01                 -  -    -   120    6   11
   -  -  -  -    6.000E-01 9.000E-01                 -  -    -   121    7   13
   -  -  -  -    1.500E+00 9.000E-01                 -  -    -   122    8   15
   3  H  3  H  O         *         *  *    * 1.200E+01  2 0.00     *    *    * *
   -  -  -  -  - 1.000E-02 0.000E+00 -1  4.0         -  -    -   159    1   19 1
   -  -  -  -  - 1.000E-02 0.000E+00  1  4.0         -  -    -   157    2   20 0
   -  -  -  -  - 3.000E-02 0.000E+00 -1  1.0         -  -    -   154    3   21 1
   -  -  -  -  - 3.000E-02 0.000E+00  1  1.0         -  -    -   152    4   23 0
   -  -  -  -  - 7.000E-02 0.000E+00 -1  1.0         -  -    -   149    5   25 1
   -  -  -  -  - 7.000E-02 0.000E+00  1  1.0         -  -    -   147    6   26 0
   -  -  -  -  - 2.000E-01 0.000E+00  1  1.0         -  -    -   144    7   27 1
   4  H  3  O  O         *         *  *    * 1.200E+01  2 0.00     *    *    * *
   -  -  -  -  - 1.000E-03 0.000E+00 -1  4.0         -  -    -   169    1   17 1
   -  -  -  -  - 1.000E-03 0.000E+00  1  4.0         -  -    -   168    2   18 0
   -  -  -  -  - 3.000E-02 0.000E+00 -1  1.0         -  -    -   167    3   22 1
   -  -  -  -  - 3.000E-02 0.000E+00  1  1.0         -  -    -   166    4   24 0
Short range atomic symmetry function groups element  O :
 ind ec ty e1 e2       eta        rs la zeta        rc ct   ca    ln   mi  sfi e
   1  O  2  H            *         *         1.200E+01  2 0.00     *    *    *
   -  -  -  -    1.000E-03 0.000E+00                 -  -    -   124    1    1
   -  -  -  -    1.000E-02 0.000E+00                 -  -    -   125    2    3
   -  -  -  -    3.000E-02 0.000E+00                 -  -    -   126    3    5
   -  -  -  -    6.000E-02 0.000E+00                 -  -    -   127    4    7
   -  -  -  -    1.500E-01 9.000E-01                 -  -    -   128    5    9
   -  -  -  -    3.000E-01 9.000E-01                 -  -    -   129    6   11
   -  -  -  -    6.000E-01 9.000E-01                 -  -    -   130    7   13
   -  -  -  -    1.500E+00 9.000E-01                 -  -    -   131    8   15
   2  O  2  O            *         *         1.200E+01  2 0.00     *    *    *
   -  -  -  -    1.000E-03 0.000E+00                 -  -    -   134    1    2
   -  -  -  -    1.000E-02 0.000E+00                 -  -    -   135    2    4
   -  -  -  -    3.000E-02 0.000E+00                 -  -    -   136    3    6
   -  -  -  -    6.000E-02 0.000E+00                 -  -    -   137    4    8
   -  -  -  -    1.500E-01 4.000E+00                 -  -    -   138    5   10
   -  -  -  -    3.000E-01 4.000E+00                 -  -    -   139    6   12
   -  -  -  -    6.000E-01 4.000E+00                 -  -    -   140    7   14
   -  -  -  -    1.500E+00 4.000E+00                 -  -    -   141    8   16
   3  O  3  H  H         *         *  *    * 1.200E+01  2 0.00     *    *    * *
   -  -  -  -  - 1.000E-02 0.000E+00 -1  4.0         -  -    -   158    1   21 1
   -  -  -  -  - 1.000E-02 0.000E+00  1  4.0         -  -    -   156    2   22 0
   -  -  -  -  - 3.000E-02 0.000E+00 -1  1.0         -  -    -   153    3   23 1
   -  -  -  -  - 3.000E-02 0.000E+00  1  1.0         -  -    -   151    4   26 0
   -  -  -  -  - 7.000E-02 0.000E+00 -1  1.0         -  -    -   148    5   29 1
   -  -  -  -  - 7.000E-02 0.000E+00  1  1.0         -  -    -   146    6   30 0
   4  O  3  H  O         *         *  *    * 1.200E+01  2 0.00     *    *    * *
   -  -  -  -  - 1.000E-03 0.000E+00 -1  4.0         -  -    -   164    1   17 1
   -  -  -  -  - 1.000E-03 0.000E+00  1  4.0         -  -    -   163    2   19 0
   -  -  -  -  - 3.000E-02 0.000E+00 -1  1.0         -  -    -   162    3   24 1
   -  -  -  -  - 3.000E-02 0.000E+00  1  1.0         -  -    -   161    4   27 0
   5  O  3  O  O         *         *  *    * 1.200E+01  2 0.00     *    *    * *
   -  -  -  -  - 1.000E-03 0.000E+00 -1  4.0         -  -    -   174    1   18 1
   -  -  -  -  - 1.000E-03 0.000E+00  1  4.0         -  -    -   173    2   20 0
   -  -  -  -  - 3.000E-02 0.000E+00 -1  1.0         -  -    -   172    3   25 1
   -  -  -  -  - 3.000E-02 0.000E+00  1  1.0         -  -    -   171    4   28 0
*******************************************************************************

*** SETUP: NEURAL NETWORKS ****************************************************

Normalize neurons (all elements): 0
Atomic short range NN for element  H :
Number of weights    :   1325
Number of biases     :     51
Number of connections:   1376
Architecture       27   25   25    1
   1   G   t   t   l
   2   G   t   t
   3   G   t   t
   4   G   t   t
   5   G   t   t
   6   G   t   t
   7   G   t   t
   8   G   t   t
   9   G   t   t
  10   G   t   t
  11   G   t   t
  12   G   t   t
  13   G   t   t
  14   G   t   t
  15   G   t   t
  16   G   t   t
  17   G   t   t
  18   G   t   t
  19   G   t   t
  20   G   t   t
  21   G   t   t
  22   G   t   t
  23   G   t   t
  24   G   t   t
  25   G   t   t
  26   G
  27   G
Atomic short range NN for element  O :
Number of weights    :   1400
Number of biases     :     51
Number of connections:   1451
Architecture       30   25   25    1
   1   G   t   t   l
   2   G   t   t
   3   G   t   t
   4   G   t   t
   5   G   t   t
   6   G   t   t
   7   G   t   t
   8   G   t   t
   9   G   t   t
  10   G   t   t
  11   G   t   t
  12   G   t   t
  13   G   t   t
  14   G   t   t
  15   G   t   t
  16   G   t   t
  17   G   t   t
  18   G   t   t
  19   G   t   t
  20   G   t   t
  21   G   t   t
  22   G   t   t
  23   G   t   t
  24   G   t   t
  25   G   t   t
  26   G
  27   G
  28   G
  29   G
  30   G
*******************************************************************************

*** SETUP: SYMMETRY FUNCTION SCALING ******************************************

Equal scaling type for all symmetry functions:
Scaling type::ST_SCALECENTER (3)
Gs = Smin + (Smax - Smin) * (G - Gmean) / (Gmax - Gmin)
Smin = 0.000000
Smax = 1.000000
Symmetry function scaling statistics from file: nnp-trained/scaling.data

Abbreviations:
ind ..... Symmetry function index.
min ..... Minimum symmetry function value.
max ..... Maximum symmetry function value.
mean .... Mean symmetry function value.
sigma ... Standard deviation of symmetry function values.
sf ...... Scaling factor for derivatives.
Smin .... Desired minimum scaled symmetry function value.
Smax .... Desired maximum scaled symmetry function value.
t ....... Scaling type.

Scaling data for symmetry functions element  H :
 ind       min       max      mean     sigma        sf  Smin  Smax t
Scaling data for symmetry functions element  O :
 ind       min       max      mean     sigma        sf  Smin  Smax t
*******************************************************************************

*** SETUP: SYMMETRY FUNCTION STATISTICS ***************************************

Equal symmetry function statistics for all elements.
Collect min/max/mean/sigma                        : 0
Collect extrapolation warnings                    : 1
Write extrapolation warnings immediately to stderr: 0
Halt on any extrapolation warning                 : 0
*******************************************************************************

*** SETUP: NEURAL NETWORK WEIGHTS *********************************************

Weight file name format: nnp-trained/weights.%03d.data
Weight file for element  H: nnp-trained/weights.001.data
Weight file for element  O: nnp-trained/weights.008.data
*******************************************************************************

*** SETUP: LAMMPS INTERFACE ***************************************************

Individual extrapolation warnings will not be shown.
Extrapolation warning summary will not be shown.
The simulation will be stopped when 5000 extrapolation warnings are exceeded.
Extrapolation warning counter is reset every time step.
CAUTION: If the LAMMPS unit system differs from the one used
         during NN training, appropriate conversion factors
         must be provided (see keywords cflength and cfenergy).

Length unit conversion factor:   1.8897261327999999E+00
Energy unit conversion factor:   1.5935999999999999E-03

Checking consistency of cutoff radii (in LAMMPS units):
LAMMPS Cutoff (via pair_coeff)  :   6.360E+00
Maximum symmetry function cutoff:   6.350E+00
Cutoff radii are consistent.
CAUTION: Please ensure that this mapping between LAMMPS
         atom types and NNP elements is consistent:

LAMMPS type  |  NNP element
          1 <->  H (  1)
          2 <->  O (  8)

NNP setup for LAMMPS completed.
*******************************************************************************
All restart file global fix info was re-assigned
  update every 1 steps, delay 10 steps, check yes
Step Temp TotEng Press Lx Ly Lz v_dens
10000          300   -3555210.4     13451.12    12.994831    12.994831    12.994831    1.0088118
Averages over the last 1001 of 2001 rows, steps 60000 to 110000:
Temp TotEng Press Lx Ly Lz v_dens
300.254 -3.55531e+06 3425.68 12.9948 12.9948 12.9948 1.00881
Loop time of 1025.41 on 20 procs for 100000 steps with 222 atoms

unfix       rlx

# =================== DIFFUSION
compute         msd all msd com yes
fix             msd_vec1 all vector 50 c_msd[1]
variable        Dx equal slope(f_msd_vec1)/(50*dt)/2*1.0E3  # A^2/ps #*1.0E4  #cm2/s (*1E-5)
fix             msd_vec2 all vector 50 c_msd[2]
variable        Dy equal slope(f_msd_vec2)/(50*dt)/2*1.0E3  # A^2/ps #*1.0E4  #cm2/s (*1E-5)
fix             msd_vec3 all vector 50 c_msd[3]
variable        Dz equal slope(f_msd_vec3)/(50*dt)/2*1.0E3  # A^2/ps #*1.0E4  #cm2/s (*1E-5)
variable		    D equal (v_Dx+v_Dy+v_Dz)/3.0
# ===================

# =================== CORRELATIONS
variable    c equal 500     # correlation length
variable    s equal 4       # sample interval
variable    d equal $c*$s   # dump interval
variable    d equal 500*$s
variable    d equal 500*4
fix         SS all ave/correlate $s $c $d v_pxy v_pxz v_pyz type auto ave running #file correlate.dat
fix         SS all ave/correlate 4 $c $d v_pxy v_pxz v_pyz type auto ave running
fix         SS all ave/correlate 4 500 $d v_pxy v_pxz v_pyz type auto ave running
fix         SS all ave/correlate 4 500 2000 v_pxy v_pxz v_pyz type auto ave running
# ===================

# =================== VISCOSITY
variable	  volume 	equal lx*ly*lz
variable    scale1	equal ($s*dt)*(0.0072954/$T)*1.01325E5*1E-15*1E4 #Pa*s/atm^2 (*1E-4)
variable    scale1	equal (4*dt)*(0.0072954/$T)*1.01325E5*1E-15*1E4
variable    scale1	equal (4*dt)*(0.0072954/300)*1.01325E5*1E-15*1E4
variable    vxy  	equal trap(f_SS[3])*4.9280427e-11*v_volume
variable    vxz  	equal trap(f_SS[4])*4.9280427e-11*v_volume
variable    vyz  	equal trap(f_SS[5])*4.9280427e-11*v_volume
variable    eta   equal (v_vxz+v_vyz+v_vxy)/3  #Pa*s (*1E-4)
# ==================

thermo $d
thermo 2000
thermo_style    custom step temp etotal press v_dens v_D c_msd[4] v_eta

fix         rlx all nvt temp $T $T 100 #iso $P $P 1000
fix         rlx all nvt temp 300 $T 100
fix         rlx all nvt temp 300 300 100
run 			  500000
Step Temp TotEng Press v_dens v_D c_msd[4] v_eta
110000    295.22282   -3555348.6    628.99922    1.0088118        2e+21 4.1589156e-31  0.098930207
Averages over the last 126 of 251 rows, steps 360000 to 610000:
Temp TotEng Press v_dens v_D c_msd[4] v_eta
297.483 -3.55531e+06 3831.03 1.00881 0.257043 290.854 5.94391
Loop time of 5126.15 on 20 procs for 500000 steps with 222 atoms
